[board]
type=System
children=cache_hierarchy clk_domain cxl_memory_0 cxl_memory_1 dvfs_handler iobus memory pc processor workload
auto_unlink_shared_backstore=false
cache_line_size=64
eventq_index=0
exit_on_work_items=true
init_param=0
m5ops_base=4294901760
mem_mode=atomic_noncaching
mem_ranges=0:3221225472 3221225472:3222274048
memories=board.memory.mem_ctrl0.dram board.memory.mem_ctrl1.dram board.cxl_memory_0.mem_ctrl0.dram board.cxl_memory_0.mem_ctrl1.dram board.cxl_memory_1.mem_ctrl0.dram board.cxl_memory_1.mem_ctrl1.dram
mmap_using_noreserve=false
multi_thread=false
num_work_ids=16
readfile=results/multi_m9_n2_64_v2/readfile
redirect_paths=
shadow_rom_ranges=
shared_backstore=
symbolfile=
thermal_components=
thermal_model=Null
work_begin_ckpt_count=0
work_begin_cpu_id_exit=-1
work_begin_exit_count=0
work_cpus_ckpt_count=0
work_end_ckpt_count=0
work_end_exit_count=0
work_item_id=-1
workload=board.workload
system_port=board.cache_hierarchy.ruby_system.sys_port_proxy.in_ports[0]

[board.cache_hierarchy]
type=SubSystem
children=ruby_system
eventq_index=0
thermal_domain=Null

[board.cache_hierarchy.ruby_system]
type=RubySystem
children=directory_controllers0 directory_controllers1 directory_controllers2 directory_controllers3 dma_controllers0 dma_controllers1 dma_controllers2 dma_controllers3 l1_controllers0 l1_controllers1 l1_controllers2 l2_controllers network power_state sys_port_proxy
access_backing_store=false
all_instructions=false
block_size_bytes=64
clk_domain=board.clk_domain
eventq_index=0
hot_lines=false
memory_size_bits=64
num_of_sequencers=7
number_of_virtual_networks=6
phys_mem=Null
power_model=
power_state=board.cache_hierarchy.ruby_system.power_state
randomization=false
system=board

[board.cache_hierarchy.ruby_system.directory_controllers0]
type=Directory_Controller
children=directory power_state requestToDir requestToMemory responseFromDir responseFromMemory responseToDir
addr_ranges=0:3221225472:0:64
buffer_size=0
clk_domain=board.clk_domain
cluster_id=0
directory=board.cache_hierarchy.ruby_system.directory_controllers0.directory
directory_latency=6
downstream_destinations=
eventq_index=0
mandatory_queue_latency=1
number_of_TBEs=256
power_model=
power_state=board.cache_hierarchy.ruby_system.directory_controllers0.power_state
recycle_latency=10
requestToDir=board.cache_hierarchy.ruby_system.directory_controllers0.requestToDir
requestToMemory=board.cache_hierarchy.ruby_system.directory_controllers0.requestToMemory
responseFromDir=board.cache_hierarchy.ruby_system.directory_controllers0.responseFromDir
responseFromMemory=board.cache_hierarchy.ruby_system.directory_controllers0.responseFromMemory
responseToDir=board.cache_hierarchy.ruby_system.directory_controllers0.responseToDir
ruby_system=board.cache_hierarchy.ruby_system
system=board
to_mem_ctrl_latency=1
transitions_per_cycle=32
upstream_destinations=
version=0
memory_out_port=board.memory.mem_ctrl0.port

[board.cache_hierarchy.ruby_system.directory_controllers0.directory]
type=RubyDirectoryMemory
addr_ranges=0:3221225472:0:64
eventq_index=0

[board.cache_hierarchy.ruby_system.directory_controllers0.power_state]
type=PowerState
clk_gate_bins=20
clk_gate_max=1000000000000
clk_gate_min=1000
default_state=UNDEFINED
eventq_index=0
leaders=
possible_states=

[board.cache_hierarchy.ruby_system.directory_controllers0.requestToDir]
type=MessageBuffer
allow_zero_latency=false
buffer_size=0
eventq_index=0
max_dequeue_rate=0
ordered=false
randomization=ruby_system
routing_priority=0
in_port=board.cache_hierarchy.ruby_system.network.out_port[13]

[board.cache_hierarchy.ruby_system.directory_controllers0.requestToMemory]
type=MessageBuffer
allow_zero_latency=false
buffer_size=0
eventq_index=0
max_dequeue_rate=0
ordered=false
randomization=ruby_system
routing_priority=0

[board.cache_hierarchy.ruby_system.directory_controllers0.responseFromDir]
type=MessageBuffer
allow_zero_latency=false
buffer_size=0
eventq_index=0
max_dequeue_rate=0
ordered=false
randomization=ruby_system
routing_priority=0
out_port=board.cache_hierarchy.ruby_system.network.in_port[16]

[board.cache_hierarchy.ruby_system.directory_controllers0.responseFromMemory]
type=MessageBuffer
allow_zero_latency=false
buffer_size=0
eventq_index=0
max_dequeue_rate=0
ordered=false
randomization=ruby_system
routing_priority=0

[board.cache_hierarchy.ruby_system.directory_controllers0.responseToDir]
type=MessageBuffer
allow_zero_latency=false
buffer_size=0
eventq_index=0
max_dequeue_rate=0
ordered=false
randomization=ruby_system
routing_priority=0
in_port=board.cache_hierarchy.ruby_system.network.out_port[14]

[board.cache_hierarchy.ruby_system.directory_controllers1]
type=Directory_Controller
children=directory power_state requestToDir requestToMemory responseFromDir responseFromMemory responseToDir
addr_ranges=0:3221225472:1:64
buffer_size=0
clk_domain=board.clk_domain
cluster_id=0
directory=board.cache_hierarchy.ruby_system.directory_controllers1.directory
directory_latency=6
downstream_destinations=
eventq_index=0
mandatory_queue_latency=1
number_of_TBEs=256
power_model=
power_state=board.cache_hierarchy.ruby_system.directory_controllers1.power_state
recycle_latency=10
requestToDir=board.cache_hierarchy.ruby_system.directory_controllers1.requestToDir
requestToMemory=board.cache_hierarchy.ruby_system.directory_controllers1.requestToMemory
responseFromDir=board.cache_hierarchy.ruby_system.directory_controllers1.responseFromDir
responseFromMemory=board.cache_hierarchy.ruby_system.directory_controllers1.responseFromMemory
responseToDir=board.cache_hierarchy.ruby_system.directory_controllers1.responseToDir
ruby_system=board.cache_hierarchy.ruby_system
system=board
to_mem_ctrl_latency=1
transitions_per_cycle=32
upstream_destinations=
version=1
memory_out_port=board.memory.mem_ctrl1.port

[board.cache_hierarchy.ruby_system.directory_controllers1.directory]
type=RubyDirectoryMemory
addr_ranges=0:3221225472:1:64
eventq_index=0

[board.cache_hierarchy.ruby_system.directory_controllers1.power_state]
type=PowerState
clk_gate_bins=20
clk_gate_max=1000000000000
clk_gate_min=1000
default_state=UNDEFINED
eventq_index=0
leaders=
possible_states=

[board.cache_hierarchy.ruby_system.directory_controllers1.requestToDir]
type=MessageBuffer
allow_zero_latency=false
buffer_size=0
eventq_index=0
max_dequeue_rate=0
ordered=false
randomization=ruby_system
routing_priority=0
in_port=board.cache_hierarchy.ruby_system.network.out_port[15]

[board.cache_hierarchy.ruby_system.directory_controllers1.requestToMemory]
type=MessageBuffer
allow_zero_latency=false
buffer_size=0
eventq_index=0
max_dequeue_rate=0
ordered=false
randomization=ruby_system
routing_priority=0

[board.cache_hierarchy.ruby_system.directory_controllers1.responseFromDir]
type=MessageBuffer
allow_zero_latency=false
buffer_size=0
eventq_index=0
max_dequeue_rate=0
ordered=false
randomization=ruby_system
routing_priority=0
out_port=board.cache_hierarchy.ruby_system.network.in_port[17]

[board.cache_hierarchy.ruby_system.directory_controllers1.responseFromMemory]
type=MessageBuffer
allow_zero_latency=false
buffer_size=0
eventq_index=0
max_dequeue_rate=0
ordered=false
randomization=ruby_system
routing_priority=0

[board.cache_hierarchy.ruby_system.directory_controllers1.responseToDir]
type=MessageBuffer
allow_zero_latency=false
buffer_size=0
eventq_index=0
max_dequeue_rate=0
ordered=false
randomization=ruby_system
routing_priority=0
in_port=board.cache_hierarchy.ruby_system.network.out_port[16]

[board.cache_hierarchy.ruby_system.directory_controllers2]
type=Directory_Controller
children=directory power_state requestToDir requestToMemory responseFromDir responseFromMemory responseToDir
addr_ranges=4294967296:4563402752
buffer_size=0
clk_domain=board.clk_domain
cluster_id=0
directory=board.cache_hierarchy.ruby_system.directory_controllers2.directory
directory_latency=6
downstream_destinations=
eventq_index=0
mandatory_queue_latency=1
number_of_TBEs=256
power_model=
power_state=board.cache_hierarchy.ruby_system.directory_controllers2.power_state
recycle_latency=10
requestToDir=board.cache_hierarchy.ruby_system.directory_controllers2.requestToDir
requestToMemory=board.cache_hierarchy.ruby_system.directory_controllers2.requestToMemory
responseFromDir=board.cache_hierarchy.ruby_system.directory_controllers2.responseFromDir
responseFromMemory=board.cache_hierarchy.ruby_system.directory_controllers2.responseFromMemory
responseToDir=board.cache_hierarchy.ruby_system.directory_controllers2.responseToDir
ruby_system=board.cache_hierarchy.ruby_system
system=board
to_mem_ctrl_latency=1
transitions_per_cycle=32
upstream_destinations=
version=2
memory_out_port=board.pc.south_bridge.cxl_dev0.cxl_rsp_port

[board.cache_hierarchy.ruby_system.directory_controllers2.directory]
type=RubyDirectoryMemory
addr_ranges=4294967296:4563402752
eventq_index=0

[board.cache_hierarchy.ruby_system.directory_controllers2.power_state]
type=PowerState
clk_gate_bins=20
clk_gate_max=1000000000000
clk_gate_min=1000
default_state=UNDEFINED
eventq_index=0
leaders=
possible_states=

[board.cache_hierarchy.ruby_system.directory_controllers2.requestToDir]
type=MessageBuffer
allow_zero_latency=false
buffer_size=0
eventq_index=0
max_dequeue_rate=0
ordered=false
randomization=ruby_system
routing_priority=0
in_port=board.cache_hierarchy.ruby_system.network.out_port[17]

[board.cache_hierarchy.ruby_system.directory_controllers2.requestToMemory]
type=MessageBuffer
allow_zero_latency=false
buffer_size=0
eventq_index=0
max_dequeue_rate=0
ordered=false
randomization=ruby_system
routing_priority=0

[board.cache_hierarchy.ruby_system.directory_controllers2.responseFromDir]
type=MessageBuffer
allow_zero_latency=false
buffer_size=0
eventq_index=0
max_dequeue_rate=0
ordered=false
randomization=ruby_system
routing_priority=0
out_port=board.cache_hierarchy.ruby_system.network.in_port[18]

[board.cache_hierarchy.ruby_system.directory_controllers2.responseFromMemory]
type=MessageBuffer
allow_zero_latency=false
buffer_size=0
eventq_index=0
max_dequeue_rate=0
ordered=false
randomization=ruby_system
routing_priority=0

[board.cache_hierarchy.ruby_system.directory_controllers2.responseToDir]
type=MessageBuffer
allow_zero_latency=false
buffer_size=0
eventq_index=0
max_dequeue_rate=0
ordered=false
randomization=ruby_system
routing_priority=0
in_port=board.cache_hierarchy.ruby_system.network.out_port[18]

[board.cache_hierarchy.ruby_system.directory_controllers3]
type=Directory_Controller
children=directory power_state requestToDir requestToMemory responseFromDir responseFromMemory responseToDir
addr_ranges=4563402752:4831838208
buffer_size=0
clk_domain=board.clk_domain
cluster_id=0
directory=board.cache_hierarchy.ruby_system.directory_controllers3.directory
directory_latency=6
downstream_destinations=
eventq_index=0
mandatory_queue_latency=1
number_of_TBEs=256
power_model=
power_state=board.cache_hierarchy.ruby_system.directory_controllers3.power_state
recycle_latency=10
requestToDir=board.cache_hierarchy.ruby_system.directory_controllers3.requestToDir
requestToMemory=board.cache_hierarchy.ruby_system.directory_controllers3.requestToMemory
responseFromDir=board.cache_hierarchy.ruby_system.directory_controllers3.responseFromDir
responseFromMemory=board.cache_hierarchy.ruby_system.directory_controllers3.responseFromMemory
responseToDir=board.cache_hierarchy.ruby_system.directory_controllers3.responseToDir
ruby_system=board.cache_hierarchy.ruby_system
system=board
to_mem_ctrl_latency=1
transitions_per_cycle=32
upstream_destinations=
version=3
memory_out_port=board.pc.south_bridge.cxl_dev1.cxl_rsp_port

[board.cache_hierarchy.ruby_system.directory_controllers3.directory]
type=RubyDirectoryMemory
addr_ranges=4563402752:4831838208
eventq_index=0

[board.cache_hierarchy.ruby_system.directory_controllers3.power_state]
type=PowerState
clk_gate_bins=20
clk_gate_max=1000000000000
clk_gate_min=1000
default_state=UNDEFINED
eventq_index=0
leaders=
possible_states=

[board.cache_hierarchy.ruby_system.directory_controllers3.requestToDir]
type=MessageBuffer
allow_zero_latency=false
buffer_size=0
eventq_index=0
max_dequeue_rate=0
ordered=false
randomization=ruby_system
routing_priority=0
in_port=board.cache_hierarchy.ruby_system.network.out_port[19]

[board.cache_hierarchy.ruby_system.directory_controllers3.requestToMemory]
type=MessageBuffer
allow_zero_latency=false
buffer_size=0
eventq_index=0
max_dequeue_rate=0
ordered=false
randomization=ruby_system
routing_priority=0

[board.cache_hierarchy.ruby_system.directory_controllers3.responseFromDir]
type=MessageBuffer
allow_zero_latency=false
buffer_size=0
eventq_index=0
max_dequeue_rate=0
ordered=false
randomization=ruby_system
routing_priority=0
out_port=board.cache_hierarchy.ruby_system.network.in_port[19]

[board.cache_hierarchy.ruby_system.directory_controllers3.responseFromMemory]
type=MessageBuffer
allow_zero_latency=false
buffer_size=0
eventq_index=0
max_dequeue_rate=0
ordered=false
randomization=ruby_system
routing_priority=0

[board.cache_hierarchy.ruby_system.directory_controllers3.responseToDir]
type=MessageBuffer
allow_zero_latency=false
buffer_size=0
eventq_index=0
max_dequeue_rate=0
ordered=false
randomization=ruby_system
routing_priority=0
in_port=board.cache_hierarchy.ruby_system.network.out_port[20]

[board.cache_hierarchy.ruby_system.dma_controllers0]
type=DMA_Controller
children=dma_sequencer mandatoryQueue power_state requestToDir responseFromDir
addr_ranges=0:18446744073709551615
buffer_size=0
clk_domain=board.clk_domain
cluster_id=0
dma_sequencer=board.cache_hierarchy.ruby_system.dma_controllers0.dma_sequencer
downstream_destinations=
eventq_index=0
mandatoryQueue=board.cache_hierarchy.ruby_system.dma_controllers0.mandatoryQueue
mandatory_queue_latency=1
number_of_TBEs=256
power_model=
power_state=board.cache_hierarchy.ruby_system.dma_controllers0.power_state
recycle_latency=10
requestToDir=board.cache_hierarchy.ruby_system.dma_controllers0.requestToDir
request_latency=500
responseFromDir=board.cache_hierarchy.ruby_system.dma_controllers0.responseFromDir
ruby_system=board.cache_hierarchy.ruby_system
system=board
transitions_per_cycle=32
upstream_destinations=
version=0

[board.cache_hierarchy.ruby_system.dma_controllers0.dma_sequencer]
type=DMASequencer
children=power_state
clk_domain=board.clk_domain
eventq_index=0
is_cpu_sequencer=true
max_outstanding_requests=64
no_retry_on_stall=false
power_model=
power_state=board.cache_hierarchy.ruby_system.dma_controllers0.dma_sequencer.power_state
ruby_system=board.cache_hierarchy.ruby_system
support_data_reqs=true
support_inst_reqs=true
system=board
using_ruby_tester=false
version=0
in_ports=board.pc.south_bridge.ide.dma

[board.cache_hierarchy.ruby_system.dma_controllers0.dma_sequencer.power_state]
type=PowerState
clk_gate_bins=20
clk_gate_max=1000000000000
clk_gate_min=1000
default_state=UNDEFINED
eventq_index=0
leaders=
possible_states=

[board.cache_hierarchy.ruby_system.dma_controllers0.mandatoryQueue]
type=MessageBuffer
allow_zero_latency=false
buffer_size=0
eventq_index=0
max_dequeue_rate=0
ordered=false
randomization=ruby_system
routing_priority=0

[board.cache_hierarchy.ruby_system.dma_controllers0.power_state]
type=PowerState
clk_gate_bins=20
clk_gate_max=1000000000000
clk_gate_min=1000
default_state=UNDEFINED
eventq_index=0
leaders=
possible_states=

[board.cache_hierarchy.ruby_system.dma_controllers0.requestToDir]
type=MessageBuffer
allow_zero_latency=false
buffer_size=0
eventq_index=0
max_dequeue_rate=0
ordered=false
randomization=ruby_system
routing_priority=0
out_port=board.cache_hierarchy.ruby_system.network.in_port[20]

[board.cache_hierarchy.ruby_system.dma_controllers0.responseFromDir]
type=MessageBuffer
allow_zero_latency=false
buffer_size=0
eventq_index=0
max_dequeue_rate=0
ordered=true
randomization=ruby_system
routing_priority=0
in_port=board.cache_hierarchy.ruby_system.network.out_port[21]

[board.cache_hierarchy.ruby_system.dma_controllers1]
type=DMA_Controller
children=dma_sequencer mandatoryQueue power_state requestToDir responseFromDir
addr_ranges=0:18446744073709551615
buffer_size=0
clk_domain=board.clk_domain
cluster_id=0
dma_sequencer=board.cache_hierarchy.ruby_system.dma_controllers1.dma_sequencer
downstream_destinations=
eventq_index=0
mandatoryQueue=board.cache_hierarchy.ruby_system.dma_controllers1.mandatoryQueue
mandatory_queue_latency=1
number_of_TBEs=256
power_model=
power_state=board.cache_hierarchy.ruby_system.dma_controllers1.power_state
recycle_latency=10
requestToDir=board.cache_hierarchy.ruby_system.dma_controllers1.requestToDir
request_latency=500
responseFromDir=board.cache_hierarchy.ruby_system.dma_controllers1.responseFromDir
ruby_system=board.cache_hierarchy.ruby_system
system=board
transitions_per_cycle=32
upstream_destinations=
version=1

[board.cache_hierarchy.ruby_system.dma_controllers1.dma_sequencer]
type=DMASequencer
children=power_state
clk_domain=board.clk_domain
eventq_index=0
is_cpu_sequencer=true
max_outstanding_requests=64
no_retry_on_stall=false
power_model=
power_state=board.cache_hierarchy.ruby_system.dma_controllers1.dma_sequencer.power_state
ruby_system=board.cache_hierarchy.ruby_system
support_data_reqs=true
support_inst_reqs=true
system=board
using_ruby_tester=false
version=1
in_ports=board.iobus.mem_side_ports[18]

[board.cache_hierarchy.ruby_system.dma_controllers1.dma_sequencer.power_state]
type=PowerState
clk_gate_bins=20
clk_gate_max=1000000000000
clk_gate_min=1000
default_state=UNDEFINED
eventq_index=0
leaders=
possible_states=

[board.cache_hierarchy.ruby_system.dma_controllers1.mandatoryQueue]
type=MessageBuffer
allow_zero_latency=false
buffer_size=0
eventq_index=0
max_dequeue_rate=0
ordered=false
randomization=ruby_system
routing_priority=0

[board.cache_hierarchy.ruby_system.dma_controllers1.power_state]
type=PowerState
clk_gate_bins=20
clk_gate_max=1000000000000
clk_gate_min=1000
default_state=UNDEFINED
eventq_index=0
leaders=
possible_states=

[board.cache_hierarchy.ruby_system.dma_controllers1.requestToDir]
type=MessageBuffer
allow_zero_latency=false
buffer_size=0
eventq_index=0
max_dequeue_rate=0
ordered=false
randomization=ruby_system
routing_priority=0
out_port=board.cache_hierarchy.ruby_system.network.in_port[21]

[board.cache_hierarchy.ruby_system.dma_controllers1.responseFromDir]
type=MessageBuffer
allow_zero_latency=false
buffer_size=0
eventq_index=0
max_dequeue_rate=0
ordered=true
randomization=ruby_system
routing_priority=0
in_port=board.cache_hierarchy.ruby_system.network.out_port[22]

[board.cache_hierarchy.ruby_system.dma_controllers2]
type=DMA_Controller
children=dma_sequencer mandatoryQueue power_state requestToDir responseFromDir
addr_ranges=0:18446744073709551615
buffer_size=0
clk_domain=board.clk_domain
cluster_id=0
dma_sequencer=board.cache_hierarchy.ruby_system.dma_controllers2.dma_sequencer
downstream_destinations=
eventq_index=0
mandatoryQueue=board.cache_hierarchy.ruby_system.dma_controllers2.mandatoryQueue
mandatory_queue_latency=1
number_of_TBEs=256
power_model=
power_state=board.cache_hierarchy.ruby_system.dma_controllers2.power_state
recycle_latency=10
requestToDir=board.cache_hierarchy.ruby_system.dma_controllers2.requestToDir
request_latency=500
responseFromDir=board.cache_hierarchy.ruby_system.dma_controllers2.responseFromDir
ruby_system=board.cache_hierarchy.ruby_system
system=board
transitions_per_cycle=32
upstream_destinations=
version=2

[board.cache_hierarchy.ruby_system.dma_controllers2.dma_sequencer]
type=DMASequencer
children=power_state
clk_domain=board.clk_domain
eventq_index=0
is_cpu_sequencer=true
max_outstanding_requests=64
no_retry_on_stall=false
power_model=
power_state=board.cache_hierarchy.ruby_system.dma_controllers2.dma_sequencer.power_state
ruby_system=board.cache_hierarchy.ruby_system
support_data_reqs=true
support_inst_reqs=true
system=board
using_ruby_tester=false
version=2
in_ports=board.pc.south_bridge.cxl_dev0.dma

[board.cache_hierarchy.ruby_system.dma_controllers2.dma_sequencer.power_state]
type=PowerState
clk_gate_bins=20
clk_gate_max=1000000000000
clk_gate_min=1000
default_state=UNDEFINED
eventq_index=0
leaders=
possible_states=

[board.cache_hierarchy.ruby_system.dma_controllers2.mandatoryQueue]
type=MessageBuffer
allow_zero_latency=false
buffer_size=0
eventq_index=0
max_dequeue_rate=0
ordered=false
randomization=ruby_system
routing_priority=0

[board.cache_hierarchy.ruby_system.dma_controllers2.power_state]
type=PowerState
clk_gate_bins=20
clk_gate_max=1000000000000
clk_gate_min=1000
default_state=UNDEFINED
eventq_index=0
leaders=
possible_states=

[board.cache_hierarchy.ruby_system.dma_controllers2.requestToDir]
type=MessageBuffer
allow_zero_latency=false
buffer_size=0
eventq_index=0
max_dequeue_rate=0
ordered=false
randomization=ruby_system
routing_priority=0
out_port=board.cache_hierarchy.ruby_system.network.in_port[22]

[board.cache_hierarchy.ruby_system.dma_controllers2.responseFromDir]
type=MessageBuffer
allow_zero_latency=false
buffer_size=0
eventq_index=0
max_dequeue_rate=0
ordered=true
randomization=ruby_system
routing_priority=0
in_port=board.cache_hierarchy.ruby_system.network.out_port[23]

[board.cache_hierarchy.ruby_system.dma_controllers3]
type=DMA_Controller
children=dma_sequencer mandatoryQueue power_state requestToDir responseFromDir
addr_ranges=0:18446744073709551615
buffer_size=0
clk_domain=board.clk_domain
cluster_id=0
dma_sequencer=board.cache_hierarchy.ruby_system.dma_controllers3.dma_sequencer
downstream_destinations=
eventq_index=0
mandatoryQueue=board.cache_hierarchy.ruby_system.dma_controllers3.mandatoryQueue
mandatory_queue_latency=1
number_of_TBEs=256
power_model=
power_state=board.cache_hierarchy.ruby_system.dma_controllers3.power_state
recycle_latency=10
requestToDir=board.cache_hierarchy.ruby_system.dma_controllers3.requestToDir
request_latency=500
responseFromDir=board.cache_hierarchy.ruby_system.dma_controllers3.responseFromDir
ruby_system=board.cache_hierarchy.ruby_system
system=board
transitions_per_cycle=32
upstream_destinations=
version=3

[board.cache_hierarchy.ruby_system.dma_controllers3.dma_sequencer]
type=DMASequencer
children=power_state
clk_domain=board.clk_domain
eventq_index=0
is_cpu_sequencer=true
max_outstanding_requests=64
no_retry_on_stall=false
power_model=
power_state=board.cache_hierarchy.ruby_system.dma_controllers3.dma_sequencer.power_state
ruby_system=board.cache_hierarchy.ruby_system
support_data_reqs=true
support_inst_reqs=true
system=board
using_ruby_tester=false
version=3
in_ports=board.pc.south_bridge.cxl_dev1.dma

[board.cache_hierarchy.ruby_system.dma_controllers3.dma_sequencer.power_state]
type=PowerState
clk_gate_bins=20
clk_gate_max=1000000000000
clk_gate_min=1000
default_state=UNDEFINED
eventq_index=0
leaders=
possible_states=

[board.cache_hierarchy.ruby_system.dma_controllers3.mandatoryQueue]
type=MessageBuffer
allow_zero_latency=false
buffer_size=0
eventq_index=0
max_dequeue_rate=0
ordered=false
randomization=ruby_system
routing_priority=0

[board.cache_hierarchy.ruby_system.dma_controllers3.power_state]
type=PowerState
clk_gate_bins=20
clk_gate_max=1000000000000
clk_gate_min=1000
default_state=UNDEFINED
eventq_index=0
leaders=
possible_states=

[board.cache_hierarchy.ruby_system.dma_controllers3.requestToDir]
type=MessageBuffer
allow_zero_latency=false
buffer_size=0
eventq_index=0
max_dequeue_rate=0
ordered=false
randomization=ruby_system
routing_priority=0
out_port=board.cache_hierarchy.ruby_system.network.in_port[23]

[board.cache_hierarchy.ruby_system.dma_controllers3.responseFromDir]
type=MessageBuffer
allow_zero_latency=false
buffer_size=0
eventq_index=0
max_dequeue_rate=0
ordered=true
randomization=ruby_system
routing_priority=0
in_port=board.cache_hierarchy.ruby_system.network.out_port[24]

[board.cache_hierarchy.ruby_system.l1_controllers0]
type=L1Cache_Controller
children=L1Dcache L1Icache mandatoryQueue optionalQueue power_state prefetcher requestFromL1Cache requestToL1Cache responseFromL1Cache responseToL1Cache rspDataFromL1Cache rspDataToL1Cache sequencer unblockFromL1Cache
L1Dcache=board.cache_hierarchy.ruby_system.l1_controllers0.L1Dcache
L1Icache=board.cache_hierarchy.ruby_system.l1_controllers0.L1Icache
addr_ranges=0:18446744073709551615
buffer_size=0
clk_domain=board.clk_domain
cluster_id=0
downstream_destinations=
enable_prefetch=false
eventq_index=0
l1_request_latency=2
l1_response_latency=2
l2_select_num_bits=0
mandatoryQueue=board.cache_hierarchy.ruby_system.l1_controllers0.mandatoryQueue
mandatory_queue_latency=50
number_of_TBEs=256
optionalQueue=board.cache_hierarchy.ruby_system.l1_controllers0.optionalQueue
power_model=
power_state=board.cache_hierarchy.ruby_system.l1_controllers0.power_state
prefetcher=board.cache_hierarchy.ruby_system.l1_controllers0.prefetcher
recycle_latency=10
requestFromL1Cache=board.cache_hierarchy.ruby_system.l1_controllers0.requestFromL1Cache
requestToL1Cache=board.cache_hierarchy.ruby_system.l1_controllers0.requestToL1Cache
responseFromL1Cache=board.cache_hierarchy.ruby_system.l1_controllers0.responseFromL1Cache
responseToL1Cache=board.cache_hierarchy.ruby_system.l1_controllers0.responseToL1Cache
rspDataFromL1Cache=board.cache_hierarchy.ruby_system.l1_controllers0.rspDataFromL1Cache
rspDataToL1Cache=board.cache_hierarchy.ruby_system.l1_controllers0.rspDataToL1Cache
ruby_system=board.cache_hierarchy.ruby_system
send_evictions=true
sequencer=board.cache_hierarchy.ruby_system.l1_controllers0.sequencer
system=board
to_l2_latency=1
transitions_per_cycle=32
unblockFromL1Cache=board.cache_hierarchy.ruby_system.l1_controllers0.unblockFromL1Cache
upstream_destinations=
version=0

[board.cache_hierarchy.ruby_system.l1_controllers0.L1Dcache]
type=RubyCache
children=replacement_policy
assoc=8
atomicALUs=64
atomicLatency=0
block_size=0
dataAccessLatency=1
dataArrayBanks=1
eventq_index=0
is_icache=false
replacement_policy=board.cache_hierarchy.ruby_system.l1_controllers0.L1Dcache.replacement_policy
resourceStalls=false
ruby_system=board.cache_hierarchy.ruby_system
size=131072
start_index_bit=6
tagAccessLatency=1
tagArrayBanks=1

[board.cache_hierarchy.ruby_system.l1_controllers0.L1Dcache.replacement_policy]
type=TreePLRURP
eventq_index=0
num_leaves=8

[board.cache_hierarchy.ruby_system.l1_controllers0.L1Icache]
type=RubyCache
children=replacement_policy
assoc=8
atomicALUs=64
atomicLatency=0
block_size=0
dataAccessLatency=1
dataArrayBanks=1
eventq_index=0
is_icache=true
replacement_policy=board.cache_hierarchy.ruby_system.l1_controllers0.L1Icache.replacement_policy
resourceStalls=false
ruby_system=board.cache_hierarchy.ruby_system
size=32768
start_index_bit=6
tagAccessLatency=1
tagArrayBanks=1

[board.cache_hierarchy.ruby_system.l1_controllers0.L1Icache.replacement_policy]
type=TreePLRURP
eventq_index=0
num_leaves=8

[board.cache_hierarchy.ruby_system.l1_controllers0.mandatoryQueue]
type=MessageBuffer
allow_zero_latency=false
buffer_size=0
eventq_index=0
max_dequeue_rate=0
ordered=false
randomization=ruby_system
routing_priority=0

[board.cache_hierarchy.ruby_system.l1_controllers0.optionalQueue]
type=MessageBuffer
allow_zero_latency=false
buffer_size=0
eventq_index=0
max_dequeue_rate=0
ordered=false
randomization=ruby_system
routing_priority=0

[board.cache_hierarchy.ruby_system.l1_controllers0.power_state]
type=PowerState
clk_gate_bins=20
clk_gate_max=1000000000000
clk_gate_min=1000
default_state=UNDEFINED
eventq_index=0
leaders=
possible_states=

[board.cache_hierarchy.ruby_system.l1_controllers0.prefetcher]
type=RubyPrefetcher
cross_page=false
eventq_index=0
nonunit_filter=8
num_startup_pfs=1
num_streams=4
page_shift=12
train_misses=4
unit_filter=8

[board.cache_hierarchy.ruby_system.l1_controllers0.requestFromL1Cache]
type=MessageBuffer
allow_zero_latency=false
buffer_size=0
eventq_index=0
max_dequeue_rate=0
ordered=false
randomization=ruby_system
routing_priority=0
out_port=board.cache_hierarchy.ruby_system.network.in_port[0]

[board.cache_hierarchy.ruby_system.l1_controllers0.requestToL1Cache]
type=MessageBuffer
allow_zero_latency=false
buffer_size=0
eventq_index=0
max_dequeue_rate=0
ordered=false
randomization=ruby_system
routing_priority=0
in_port=board.cache_hierarchy.ruby_system.network.out_port[0]

[board.cache_hierarchy.ruby_system.l1_controllers0.responseFromL1Cache]
type=MessageBuffer
allow_zero_latency=false
buffer_size=0
eventq_index=0
max_dequeue_rate=0
ordered=false
randomization=ruby_system
routing_priority=0
out_port=board.cache_hierarchy.ruby_system.network.in_port[1]

[board.cache_hierarchy.ruby_system.l1_controllers0.responseToL1Cache]
type=MessageBuffer
allow_zero_latency=false
buffer_size=0
eventq_index=0
max_dequeue_rate=0
ordered=false
randomization=ruby_system
routing_priority=0
in_port=board.cache_hierarchy.ruby_system.network.out_port[1]

[board.cache_hierarchy.ruby_system.l1_controllers0.rspDataFromL1Cache]
type=MessageBuffer
allow_zero_latency=false
buffer_size=0
eventq_index=0
max_dequeue_rate=0
ordered=false
randomization=ruby_system
routing_priority=0
out_port=board.cache_hierarchy.ruby_system.network.in_port[2]

[board.cache_hierarchy.ruby_system.l1_controllers0.rspDataToL1Cache]
type=MessageBuffer
allow_zero_latency=false
buffer_size=0
eventq_index=0
max_dequeue_rate=0
ordered=false
randomization=ruby_system
routing_priority=0
in_port=board.cache_hierarchy.ruby_system.network.out_port[2]

[board.cache_hierarchy.ruby_system.l1_controllers0.sequencer]
type=RubySequencer
children=power_state
clk_domain=board.clk_domain
coreid=99
dcache=board.cache_hierarchy.ruby_system.l1_controllers0.L1Dcache
deadlock_threshold=500000
eventq_index=0
garnet_standalone=false
is_cpu_sequencer=true
max_outstanding_requests=16
no_retry_on_stall=false
power_model=
power_state=board.cache_hierarchy.ruby_system.l1_controllers0.sequencer.power_state
ruby_system=board.cache_hierarchy.ruby_system
support_data_reqs=true
support_inst_reqs=true
system=board
using_ruby_tester=false
version=0